LTspice 26.0.1 for Windows
Circuit: C:\Users\chinm\Documents\LTspice\Draft3.net
Start Time: Wed Dec 31 05:08:02 2025
solver = Normal
Maximum thread count: 8
tnom = 27
temp = 27
method = trap
Direct Newton iteration succeeded in finding operating point.

Simulation stopped by user.
Total elapsed time: 42.474 seconds.

Files loaded:
C:\Users\chinm\Documents\LTspice\Draft3.net
C:\Users\chinm\AppData\Local\LTspice\lib\cmp\standard.mos
C:\Users\chinm\AppData\Local\LTspice\lib\sub\LT1711.sub

